#\#CIF1.1
##########################################################################
#               Crystallographic Information Format file 
#               Produced by PyCifRW module
# 
#  This is a CIF file.  CIF has been adopted by the International
#  Union of Crystallography as the standard for data archiving and 
#  transmission.
#
#  For information on this file format, follow the CIF links at
#  http://www.iucr.org
##########################################################################

data_Li11Fe12(PO4)12
_symmetry_space_group_name_H-M          'P 1'
_cell_length_a                          4.787
_cell_length_b                          6.01
_cell_length_c                          40.996
_cell_angle_alpha                       90.0
_cell_angle_beta                        90.0
_cell_angle_gamma                       90.0
_chemical_name_systematic               'Generated by pymatgen'
_symmetry_Int_Tables_number             1
_chemical_formula_structural            Li11Fe12(PO4)12
_chemical_formula_sum                   'Li11 Fe12 P12 O48'
_cell_volume                            1179.44959052
_cell_formula_units_Z                   0
loop_
  _symmetry_equiv_pos_site_id
  _symmetry_equiv_pos_as_xyz
   1  'x, y, z'
 
loop_
  _atom_type_symbol
  _atom_type_oxidation_number
   O2-  -2.0
   Fe2+  2.0
   Li+  1.0
   P5+  5.0
 
loop_
  _atom_site_type_symbol
  _atom_site_label
  _atom_site_symmetry_multiplicity
  _atom_site_fract_x
  _atom_site_fract_y
  _atom_site_fract_z
  _atom_site_attached_hydrogens
  _atom_site_B_iso_or_equiv
  _atom_site_occupancy
   Li+  Li1  1  0.000000  0.000000  0.741112  0  .  1
   O2-  O2  1  0.706000  0.750000  0.752025  0  .  1
   P5+  P3  1  0.419210  0.250000  0.765016  0  .  1
   O2-  O4  1  0.743000  0.250000  0.765508  0  .  1
   O2-  O5  1  0.284700  0.046600  0.782865  0  .  1
   O2-  O6  1  0.284700  0.453400  0.782865  0  .  1
   Fe2+  Fe7  1  0.474730  0.750000  0.796000  0  .  1
   Fe2+  Fe8  1  0.974730  0.250000  0.812236  0  .  1
   O2-  O9  1  0.784700  0.546600  0.825371  0  .  1
   O2-  O10  1  0.784700  0.953400  0.825371  0  .  1
   O2-  O11  1  0.243000  0.750000  0.842728  0  .  1
   P5+  P12  1  0.919210  0.750000  0.843220  0  .  1
   O2-  O13  1  0.206000  0.250000  0.856212  0  .  1
   Li+  Li14  1  0.500000  0.000000  0.867124  0  .  1
   Li+  Li15  1  0.500000  0.500000  0.867124  0  .  1
   O2-  O16  1  0.794000  0.750000  0.878037  0  .  1
   P5+  P17  1  0.080790  0.250000  0.134955  0  .  1
   O2-  O18  1  0.757000  0.250000  0.135446  0  .  1
   O2-  O19  1  0.215300  0.046600  0.152803  0  .  1
   O2-  O20  1  0.215300  0.453400  0.152803  0  .  1
   Fe2+  Fe21  1  0.025270  0.750000  0.165939  0  .  1
   Fe2+  Fe22  1  0.525270  0.250000  0.182174  0  .  1
   O2-  O23  1  0.715300  0.546600  0.195310  0  .  1
   O2-  O24  1  0.715300  0.953400  0.195310  0  .  1
   O2-  O25  1  0.257000  0.750000  0.212667  0  .  1
   P5+  P26  1  0.580790  0.750000  0.213158  0  .  1
   O2-  O27  1  0.294000  0.250000  0.226150  0  .  1
   Li+  Li28  1  0.000000  0.500000  0.237063  0  .  1
   Li+  Li29  1  0.000000  0.000000  0.237063  0  .  1
   O2-  O30  1  0.706000  0.750000  0.247975  0  .  1
   P5+  P31  1  0.419210  0.250000  0.260967  0  .  1
   O2-  O32  1  0.743000  0.250000  0.261459  0  .  1
   O2-  O33  1  0.284700  0.453400  0.278816  0  .  1
   O2-  O34  1  0.284700  0.046600  0.278816  0  .  1
   Fe2+  Fe35  1  0.474730  0.750000  0.291951  0  .  1
   Fe2+  Fe36  1  0.974730  0.250000  0.308187  0  .  1
   O2-  O37  1  0.784700  0.546600  0.321322  0  .  1
   O2-  O38  1  0.784700  0.953400  0.321322  0  .  1
   O2-  O39  1  0.243000  0.750000  0.338679  0  .  1
   P5+  P40  1  0.919210  0.750000  0.339171  0  .  1
   O2-  O41  1  0.206000  0.250000  0.352162  0  .  1
   Li+  Li42  1  0.500000  0.000000  0.363075  0  .  1
   Li+  Li43  1  0.500000  0.500000  0.363075  0  .  1
   O2-  O44  1  0.794000  0.750000  0.373988  0  .  1
   P5+  P45  1  0.080790  0.250000  0.386980  0  .  1
   O2-  O46  1  0.757000  0.250000  0.387471  0  .  1
   O2-  O47  1  0.215300  0.453400  0.404828  0  .  1
   O2-  O48  1  0.215300  0.046600  0.404828  0  .  1
   Fe2+  Fe49  1  0.025270  0.750000  0.417963  0  .  1
   Fe2+  Fe50  1  0.525270  0.250000  0.434199  0  .  1
   O2-  O51  1  0.715300  0.953400  0.447334  0  .  1
   O2-  O52  1  0.715300  0.546600  0.447334  0  .  1
   O2-  O53  1  0.257000  0.750000  0.464691  0  .  1
   P5+  P54  1  0.580790  0.750000  0.465183  0  .  1
   O2-  O55  1  0.294000  0.250000  0.478175  0  .  1
   Li+  Li56  1  0.000000  0.500000  0.489087  0  .  1
   Li+  Li57  1  0.000000  0.000000  0.489087  0  .  1
   O2-  O58  1  0.706000  0.750000  0.500000  0  .  1
   P5+  P59  1  0.419210  0.250000  0.512992  0  .  1
   O2-  O60  1  0.743000  0.250000  0.513483  0  .  1
   O2-  O61  1  0.284700  0.046600  0.530840  0  .  1
   O2-  O62  1  0.284700  0.453400  0.530840  0  .  1
   Fe2+  Fe63  1  0.474730  0.750000  0.543976  0  .  1
   Fe2+  Fe64  1  0.974730  0.250000  0.560211  0  .  1
   O2-  O65  1  0.784700  0.546600  0.573347  0  .  1
   O2-  O66  1  0.784700  0.953400  0.573347  0  .  1
   O2-  O67  1  0.243000  0.750000  0.590704  0  .  1
   P5+  P68  1  0.919210  0.750000  0.591195  0  .  1
   O2-  O69  1  0.206000  0.250000  0.604187  0  .  1
   Li+  Li70  1  0.500000  0.500000  0.615100  0  .  1
   Li+  Li71  1  0.500000  0.000000  0.615100  0  .  1
   O2-  O72  1  0.794000  0.750000  0.626012  0  .  1
   P5+  P73  1  0.080790  0.250000  0.639004  0  .  1
   O2-  O74  1  0.757000  0.250000  0.639496  0  .  1
   O2-  O75  1  0.215300  0.453400  0.656853  0  .  1
   O2-  O76  1  0.215300  0.046600  0.656853  0  .  1
   Fe2+  Fe77  1  0.025270  0.750000  0.669988  0  .  1
   Fe2+  Fe78  1  0.525270  0.250000  0.686223  0  .  1
   O2-  O79  1  0.715300  0.546600  0.699359  0  .  1
   O2-  O80  1  0.715300  0.953400  0.699359  0  .  1
   O2-  O81  1  0.257000  0.750000  0.716716  0  .  1
   P5+  P82  1  0.580790  0.750000  0.717207  0  .  1
   O2-  O83  1  0.294000  0.250000  0.730199  0  .  1
 
