#\#CIF1.1
##########################################################################
#               Crystallographic Information Format file 
#               Produced by PyCifRW module
# 
#  This is a CIF file.  CIF has been adopted by the International
#  Union of Crystallography as the standard for data archiving and 
#  transmission.
#
#  For information on this file format, follow the CIF links at
#  http://www.iucr.org
##########################################################################

data_LiFePO4
_symmetry_space_group_name_H-M          'P 1'
_cell_length_a                          4.787
_cell_length_b                          6.01
_cell_length_c                          41.328
_cell_angle_alpha                       90.0
_cell_angle_beta                        90.0
_cell_angle_gamma                       90.0
_chemical_name_systematic               'Generated by pymatgen'
_symmetry_Int_Tables_number             1
_chemical_formula_structural            LiFePO4
_chemical_formula_sum                   'Li12 Fe12 P12 O48'
_cell_volume                            1189.00118736
_cell_formula_units_Z                   12
loop_
  _symmetry_equiv_pos_site_id
  _symmetry_equiv_pos_as_xyz
   1  'x, y, z'
 
loop_
  _atom_site_type_symbol
  _atom_site_label
  _atom_site_symmetry_multiplicity
  _atom_site_fract_x
  _atom_site_fract_y
  _atom_site_fract_z
  _atom_site_attached_hydrogens
  _atom_site_B_iso_or_equiv
  _atom_site_occupancy
   O  O1  1  0.706000  0.750000  0.802242  0  .  1
   P  P2  1  0.419210  0.250000  0.815130  0  .  1
   O  O3  1  0.743000  0.250000  0.815617  0  .  1
   O  O4  1  0.284700  0.046600  0.832835  0  .  1
   O  O5  1  0.284700  0.453400  0.832835  0  .  1
   Fe  Fe6  1  0.474730  0.750000  0.845865  0  .  1
   Fe  Fe7  1  0.974730  0.250000  0.861970  0  .  1
   O  O8  1  0.784700  0.546600  0.875000  0  .  1
   O  O9  1  0.784700  0.953400  0.875000  0  .  1
   O  O10  1  0.243000  0.750000  0.142217  0  .  1
   P  P11  1  0.919210  0.750000  0.142705  0  .  1
   O  O12  1  0.206000  0.250000  0.155592  0  .  1
   Li  Li13  1  0.500000  0.000000  0.166417  0  .  1
   Li  Li14  1  0.500000  0.500000  0.166417  0  .  1
   O  O15  1  0.794000  0.750000  0.177242  0  .  1
   P  P16  1  0.080790  0.250000  0.190130  0  .  1
   O  O17  1  0.757000  0.250000  0.190617  0  .  1
   O  O18  1  0.215300  0.046600  0.207835  0  .  1
   O  O19  1  0.215300  0.453400  0.207835  0  .  1
   Fe  Fe20  1  0.025270  0.750000  0.220865  0  .  1
   Fe  Fe21  1  0.525270  0.250000  0.236970  0  .  1
   O  O22  1  0.715300  0.546600  0.250000  0  .  1
   O  O23  1  0.715300  0.953400  0.250000  0  .  1
   O  O24  1  0.257000  0.750000  0.267217  0  .  1
   P  P25  1  0.580790  0.750000  0.267705  0  .  1
   O  O26  1  0.294000  0.250000  0.280592  0  .  1
   Li  Li27  1  0.000000  0.500000  0.291417  0  .  1
   Li  Li28  1  0.000000  0.000000  0.291417  0  .  1
   O  O29  1  0.706000  0.750000  0.302242  0  .  1
   P  P30  1  0.419210  0.250000  0.315130  0  .  1
   O  O31  1  0.743000  0.250000  0.315617  0  .  1
   O  O32  1  0.284700  0.453400  0.332835  0  .  1
   O  O33  1  0.284700  0.046600  0.332835  0  .  1
   Fe  Fe34  1  0.474730  0.750000  0.345865  0  .  1
   Fe  Fe35  1  0.974730  0.250000  0.361970  0  .  1
   O  O36  1  0.784700  0.546600  0.375000  0  .  1
   O  O37  1  0.784700  0.953400  0.375000  0  .  1
   O  O38  1  0.243000  0.750000  0.392217  0  .  1
   P  P39  1  0.919210  0.750000  0.392705  0  .  1
   O  O40  1  0.206000  0.250000  0.405593  0  .  1
   Li  Li41  1  0.500000  0.000000  0.416417  0  .  1
   Li  Li42  1  0.500000  0.500000  0.416417  0  .  1
   O  O43  1  0.794000  0.750000  0.427242  0  .  1
   P  P44  1  0.080790  0.250000  0.440130  0  .  1
   O  O45  1  0.757000  0.250000  0.440617  0  .  1
   O  O46  1  0.215300  0.453400  0.457835  0  .  1
   O  O47  1  0.215300  0.046600  0.457835  0  .  1
   Fe  Fe48  1  0.025270  0.750000  0.470865  0  .  1
   Fe  Fe49  1  0.525270  0.250000  0.486970  0  .  1
   O  O50  1  0.715300  0.953400  0.500000  0  .  1
   O  O51  1  0.715300  0.546600  0.500000  0  .  1
   O  O52  1  0.257000  0.750000  0.517217  0  .  1
   P  P53  1  0.580790  0.750000  0.517705  0  .  1
   O  O54  1  0.294000  0.250000  0.530593  0  .  1
   Li  Li55  1  0.000000  0.500000  0.541417  0  .  1
   Li  Li56  1  0.000000  0.000000  0.541417  0  .  1
   O  O57  1  0.706000  0.750000  0.552242  0  .  1
   P  P58  1  0.419210  0.250000  0.565130  0  .  1
   O  O59  1  0.743000  0.250000  0.565617  0  .  1
   O  O60  1  0.284700  0.046600  0.582835  0  .  1
   O  O61  1  0.284700  0.453400  0.582835  0  .  1
   Fe  Fe62  1  0.474730  0.750000  0.595865  0  .  1
   Fe  Fe63  1  0.974730  0.250000  0.611970  0  .  1
   O  O64  1  0.784700  0.546600  0.625000  0  .  1
   O  O65  1  0.784700  0.953400  0.625000  0  .  1
   O  O66  1  0.243000  0.750000  0.642217  0  .  1
   P  P67  1  0.919210  0.750000  0.642705  0  .  1
   O  O68  1  0.206000  0.250000  0.655593  0  .  1
   Li  Li69  1  0.500000  0.500000  0.666417  0  .  1
   Li  Li70  1  0.500000  0.000000  0.666417  0  .  1
   O  O71  1  0.794000  0.750000  0.677242  0  .  1
   P  P72  1  0.080790  0.250000  0.690130  0  .  1
   O  O73  1  0.757000  0.250000  0.690617  0  .  1
   O  O74  1  0.215300  0.453400  0.707835  0  .  1
   O  O75  1  0.215300  0.046600  0.707835  0  .  1
   Fe  Fe76  1  0.025270  0.750000  0.720865  0  .  1
   Fe  Fe77  1  0.525270  0.250000  0.736970  0  .  1
   O  O78  1  0.715300  0.546600  0.750000  0  .  1
   O  O79  1  0.715300  0.953400  0.750000  0  .  1
   O  O80  1  0.257000  0.750000  0.767217  0  .  1
   P  P81  1  0.580790  0.750000  0.767705  0  .  1
   O  O82  1  0.294000  0.250000  0.780593  0  .  1
   Li  Li83  1  0.000000  0.000000  0.791417  0  .  1
   Li  Li84  1  0.000000  0.500000  0.791417  0  .  1
 
