#\#CIF1.1
##########################################################################
#               Crystallographic Information Format file 
#               Produced by PyCifRW module
# 
#  This is a CIF file.  CIF has been adopted by the International
#  Union of Crystallography as the standard for data archiving and 
#  transmission.
#
#  For information on this file format, follow the CIF links at
#  http://www.iucr.org
##########################################################################

data_LiFePO4
_symmetry_space_group_name_H-M          'P 1'
_cell_length_a                          4.787
_cell_length_b                          6.01
_cell_length_c                          40.996
_cell_angle_alpha                       90.0
_cell_angle_beta                        90.0
_cell_angle_gamma                       90.0
_chemical_name_systematic               'Generated by pymatgen'
_symmetry_Int_Tables_number             1
_chemical_formula_structural            LiFePO4
_chemical_formula_sum                   'Li12 Fe12 P12 O48'
_cell_volume                            1179.44959052
_cell_formula_units_Z                   0
loop_
  _symmetry_equiv_pos_site_id
  _symmetry_equiv_pos_as_xyz
   1  'x, y, z'
 
loop_
  _atom_type_symbol
  _atom_type_oxidation_number
   O2-  -2.0
   Fe2+  2.0
   Li+  1.0
   P5+  5.0
 
loop_
  _atom_site_type_symbol
  _atom_site_label
  _atom_site_symmetry_multiplicity
  _atom_site_fract_x
  _atom_site_fract_y
  _atom_site_fract_z
  _atom_site_attached_hydrogens
  _atom_site_B_iso_or_equiv
  _atom_site_occupancy
   O2-  O1  1  0.706000  0.750000  0.804690  0  .  1
   P5+  P2  1  0.419210  0.250000  0.817682  0  .  1
   O2-  O3  1  0.743000  0.250000  0.818173  0  .  1
   O2-  O4  1  0.284700  0.046600  0.835530  0  .  1
   O2-  O5  1  0.284700  0.453400  0.835530  0  .  1
   Fe2+  Fe6  1  0.474730  0.750000  0.848666  0  .  1
   Fe2+  Fe7  1  0.974730  0.250000  0.864901  0  .  1
   O2-  O8  1  0.784700  0.546600  0.878037  0  .  1
   O2-  O9  1  0.784700  0.953400  0.878037  0  .  1
   O2-  O10  1  0.243000  0.750000  0.139320  0  .  1
   P5+  P11  1  0.919210  0.750000  0.139811  0  .  1
   O2-  O12  1  0.206000  0.250000  0.152803  0  .  1
   Li+  Li13  1  0.500000  0.000000  0.163716  0  .  1
   Li+  Li14  1  0.500000  0.500000  0.163716  0  .  1
   O2-  O15  1  0.794000  0.750000  0.174629  0  .  1
   P5+  P16  1  0.080790  0.250000  0.187621  0  .  1
   O2-  O17  1  0.757000  0.250000  0.188112  0  .  1
   O2-  O18  1  0.215300  0.046600  0.205469  0  .  1
   O2-  O19  1  0.215300  0.453400  0.205469  0  .  1
   Fe2+  Fe20  1  0.025270  0.750000  0.218604  0  .  1
   Fe2+  Fe21  1  0.525270  0.250000  0.234840  0  .  1
   O2-  O22  1  0.715300  0.546600  0.247975  0  .  1
   O2-  O23  1  0.715300  0.953400  0.247975  0  .  1
   O2-  O24  1  0.257000  0.750000  0.265332  0  .  1
   P5+  P25  1  0.580790  0.750000  0.265824  0  .  1
   O2-  O26  1  0.294000  0.250000  0.278816  0  .  1
   Li+  Li27  1  0.000000  0.500000  0.289728  0  .  1
   Li+  Li28  1  0.000000  0.000000  0.289728  0  .  1
   O2-  O29  1  0.706000  0.750000  0.300641  0  .  1
   P5+  P30  1  0.419210  0.250000  0.313633  0  .  1
   O2-  O31  1  0.743000  0.250000  0.314124  0  .  1
   O2-  O32  1  0.284700  0.453400  0.331481  0  .  1
   O2-  O33  1  0.284700  0.046600  0.331481  0  .  1
   Fe2+  Fe34  1  0.474730  0.750000  0.344617  0  .  1
   Fe2+  Fe35  1  0.974730  0.250000  0.360852  0  .  1
   O2-  O36  1  0.784700  0.546600  0.373988  0  .  1
   O2-  O37  1  0.784700  0.953400  0.373988  0  .  1
   O2-  O38  1  0.243000  0.750000  0.391345  0  .  1
   P5+  P39  1  0.919210  0.750000  0.391836  0  .  1
   O2-  O40  1  0.206000  0.250000  0.404828  0  .  1
   Li+  Li41  1  0.500000  0.000000  0.415741  0  .  1
   Li+  Li42  1  0.500000  0.500000  0.415741  0  .  1
   O2-  O43  1  0.794000  0.750000  0.426653  0  .  1
   P5+  P44  1  0.080790  0.250000  0.439645  0  .  1
   O2-  O45  1  0.757000  0.250000  0.440137  0  .  1
   O2-  O46  1  0.215300  0.453400  0.457494  0  .  1
   O2-  O47  1  0.215300  0.046600  0.457494  0  .  1
   Fe2+  Fe48  1  0.025270  0.750000  0.470629  0  .  1
   Fe2+  Fe49  1  0.525270  0.250000  0.486864  0  .  1
   O2-  O50  1  0.715300  0.953400  0.500000  0  .  1
   O2-  O51  1  0.715300  0.546600  0.500000  0  .  1
   O2-  O52  1  0.257000  0.750000  0.517357  0  .  1
   P5+  P53  1  0.580790  0.750000  0.517848  0  .  1
   O2-  O54  1  0.294000  0.250000  0.530840  0  .  1
   Li+  Li55  1  0.000000  0.500000  0.541753  0  .  1
   Li+  Li56  1  0.000000  0.000000  0.541753  0  .  1
   O2-  O57  1  0.706000  0.750000  0.552666  0  .  1
   P5+  P58  1  0.419210  0.250000  0.565657  0  .  1
   O2-  O59  1  0.743000  0.250000  0.566149  0  .  1
   O2-  O60  1  0.284700  0.046600  0.583506  0  .  1
   O2-  O61  1  0.284700  0.453400  0.583506  0  .  1
   Fe2+  Fe62  1  0.474730  0.750000  0.596641  0  .  1
   Fe2+  Fe63  1  0.974730  0.250000  0.612877  0  .  1
   O2-  O64  1  0.784700  0.546600  0.626012  0  .  1
   O2-  O65  1  0.784700  0.953400  0.626012  0  .  1
   O2-  O66  1  0.243000  0.750000  0.643369  0  .  1
   P5+  P67  1  0.919210  0.750000  0.643861  0  .  1
   O2-  O68  1  0.206000  0.250000  0.656853  0  .  1
   Li+  Li69  1  0.500000  0.500000  0.667765  0  .  1
   Li+  Li70  1  0.500000  0.000000  0.667765  0  .  1
   O2-  O71  1  0.794000  0.750000  0.678678  0  .  1
   P5+  P72  1  0.080790  0.250000  0.691670  0  .  1
   O2-  O73  1  0.757000  0.250000  0.692161  0  .  1
   O2-  O74  1  0.215300  0.453400  0.709518  0  .  1
   O2-  O75  1  0.215300  0.046600  0.709518  0  .  1
   Fe2+  Fe76  1  0.025270  0.750000  0.722654  0  .  1
   Fe2+  Fe77  1  0.525270  0.250000  0.738889  0  .  1
   O2-  O78  1  0.715300  0.546600  0.752025  0  .  1
   O2-  O79  1  0.715300  0.953400  0.752025  0  .  1
   O2-  O80  1  0.257000  0.750000  0.769382  0  .  1
   P5+  P81  1  0.580790  0.750000  0.769873  0  .  1
   O2-  O82  1  0.294000  0.250000  0.782865  0  .  1
   Li+  Li83  1  0.000000  0.000000  0.793778  0  .  1
   Li+  Li84  1  0.000000  0.500000  0.793778  0  .  1
 
