#\#CIF1.1
##########################################################################
#               Crystallographic Information Format file 
#               Produced by PyCifRW module
# 
#  This is a CIF file.  CIF has been adopted by the International
#  Union of Crystallography as the standard for data archiving and 
#  transmission.
#
#  For information on this file format, follow the CIF links at
#  http://www.iucr.org
##########################################################################

data_Li11Fe12(PO4)12
_symmetry_space_group_name_H-M          'P 1'
_cell_length_a                          4.787
_cell_length_b                          6.01
_cell_length_c                          40.996
_cell_angle_alpha                       90.0
_cell_angle_beta                        90.0
_cell_angle_gamma                       90.0
_chemical_name_systematic               'Generated by pymatgen'
_symmetry_Int_Tables_number             1
_chemical_formula_structural            Li11Fe12(PO4)12
_chemical_formula_sum                   'Li11 Fe12 P12 O48'
_cell_volume                            1179.44959052
_cell_formula_units_Z                   0
loop_
  _symmetry_equiv_pos_site_id
  _symmetry_equiv_pos_as_xyz
   1  'x, y, z'
 
loop_
  _atom_type_symbol
  _atom_type_oxidation_number
   O2-  -2.0
   Fe2+  2.0
   Li+  1.0
   P5+  5.0
 
loop_
  _atom_site_type_symbol
  _atom_site_label
  _atom_site_symmetry_multiplicity
  _atom_site_fract_x
  _atom_site_fract_y
  _atom_site_fract_z
  _atom_site_attached_hydrogens
  _atom_site_B_iso_or_equiv
  _atom_site_occupancy
   Li+  Li1  1  0.000000  0.000000  0.727629  0  .  1
   O2-  O2  1  0.706000  0.750000  0.738541  0  .  1
   P5+  P3  1  0.419210  0.250000  0.751533  0  .  1
   O2-  O4  1  0.743000  0.250000  0.752025  0  .  1
   O2-  O5  1  0.284700  0.046600  0.769382  0  .  1
   O2-  O6  1  0.284700  0.453400  0.769382  0  .  1
   Fe2+  Fe7  1  0.474730  0.750000  0.782517  0  .  1
   Fe2+  Fe8  1  0.974730  0.250000  0.798752  0  .  1
   O2-  O9  1  0.784700  0.546600  0.811888  0  .  1
   O2-  O10  1  0.784700  0.953400  0.811888  0  .  1
   O2-  O11  1  0.243000  0.750000  0.829245  0  .  1
   P5+  P12  1  0.919210  0.750000  0.829736  0  .  1
   O2-  O13  1  0.206000  0.250000  0.842728  0  .  1
   Li+  Li14  1  0.500000  0.000000  0.853641  0  .  1
   Li+  Li15  1  0.500000  0.500000  0.853641  0  .  1
   O2-  O16  1  0.794000  0.750000  0.864554  0  .  1
   P5+  P17  1  0.080790  0.250000  0.877545  0  .  1
   O2-  O18  1  0.757000  0.250000  0.878037  0  .  1
   O2-  O19  1  0.215300  0.046600  0.139320  0  .  1
   O2-  O20  1  0.215300  0.453400  0.139320  0  .  1
   Fe2+  Fe21  1  0.025270  0.750000  0.152456  0  .  1
   Fe2+  Fe22  1  0.525270  0.250000  0.168691  0  .  1
   O2-  O23  1  0.715300  0.546600  0.181827  0  .  1
   O2-  O24  1  0.715300  0.953400  0.181827  0  .  1
   O2-  O25  1  0.257000  0.750000  0.199183  0  .  1
   P5+  P26  1  0.580790  0.750000  0.199675  0  .  1
   O2-  O27  1  0.294000  0.250000  0.212667  0  .  1
   Li+  Li28  1  0.000000  0.500000  0.223579  0  .  1
   Li+  Li29  1  0.000000  0.000000  0.223579  0  .  1
   O2-  O30  1  0.706000  0.750000  0.234492  0  .  1
   P5+  P31  1  0.419210  0.250000  0.247484  0  .  1
   O2-  O32  1  0.743000  0.250000  0.247975  0  .  1
   O2-  O33  1  0.284700  0.453400  0.265332  0  .  1
   O2-  O34  1  0.284700  0.046600  0.265332  0  .  1
   Fe2+  Fe35  1  0.474730  0.750000  0.278468  0  .  1
   Fe2+  Fe36  1  0.974730  0.250000  0.294703  0  .  1
   O2-  O37  1  0.784700  0.546600  0.307839  0  .  1
   O2-  O38  1  0.784700  0.953400  0.307839  0  .  1
   O2-  O39  1  0.243000  0.750000  0.325196  0  .  1
   P5+  P40  1  0.919210  0.750000  0.325687  0  .  1
   O2-  O41  1  0.206000  0.250000  0.338679  0  .  1
   Li+  Li42  1  0.500000  0.000000  0.349592  0  .  1
   Li+  Li43  1  0.500000  0.500000  0.349592  0  .  1
   O2-  O44  1  0.794000  0.750000  0.360504  0  .  1
   P5+  P45  1  0.080790  0.250000  0.373496  0  .  1
   O2-  O46  1  0.757000  0.250000  0.373988  0  .  1
   O2-  O47  1  0.215300  0.453400  0.391345  0  .  1
   O2-  O48  1  0.215300  0.046600  0.391345  0  .  1
   Fe2+  Fe49  1  0.025270  0.750000  0.404480  0  .  1
   Fe2+  Fe50  1  0.525270  0.250000  0.420716  0  .  1
   O2-  O51  1  0.715300  0.953400  0.433851  0  .  1
   O2-  O52  1  0.715300  0.546600  0.433851  0  .  1
   O2-  O53  1  0.257000  0.750000  0.451208  0  .  1
   P5+  P54  1  0.580790  0.750000  0.451699  0  .  1
   O2-  O55  1  0.294000  0.250000  0.464691  0  .  1
   Li+  Li56  1  0.000000  0.500000  0.475604  0  .  1
   Li+  Li57  1  0.000000  0.000000  0.475604  0  .  1
   O2-  O58  1  0.706000  0.750000  0.486517  0  .  1
   P5+  P59  1  0.419210  0.250000  0.499509  0  .  1
   O2-  O60  1  0.743000  0.250000  0.500000  0  .  1
   O2-  O61  1  0.284700  0.046600  0.517357  0  .  1
   O2-  O62  1  0.284700  0.453400  0.517357  0  .  1
   Fe2+  Fe63  1  0.474730  0.750000  0.530492  0  .  1
   Fe2+  Fe64  1  0.974730  0.250000  0.546728  0  .  1
   O2-  O65  1  0.784700  0.546600  0.559863  0  .  1
   O2-  O66  1  0.784700  0.953400  0.559863  0  .  1
   O2-  O67  1  0.243000  0.750000  0.577220  0  .  1
   P5+  P68  1  0.919210  0.750000  0.577712  0  .  1
   O2-  O69  1  0.206000  0.250000  0.590704  0  .  1
   Li+  Li70  1  0.500000  0.500000  0.601616  0  .  1
   Li+  Li71  1  0.500000  0.000000  0.601616  0  .  1
   O2-  O72  1  0.794000  0.750000  0.612529  0  .  1
   P5+  P73  1  0.080790  0.250000  0.625521  0  .  1
   O2-  O74  1  0.757000  0.250000  0.626012  0  .  1
   O2-  O75  1  0.215300  0.453400  0.643369  0  .  1
   O2-  O76  1  0.215300  0.046600  0.643369  0  .  1
   Fe2+  Fe77  1  0.025270  0.750000  0.656505  0  .  1
   Fe2+  Fe78  1  0.525270  0.250000  0.672740  0  .  1
   O2-  O79  1  0.715300  0.546600  0.685876  0  .  1
   O2-  O80  1  0.715300  0.953400  0.685876  0  .  1
   O2-  O81  1  0.257000  0.750000  0.703233  0  .  1
   P5+  P82  1  0.580790  0.750000  0.703724  0  .  1
   O2-  O83  1  0.294000  0.250000  0.716716  0  .  1
 
