#\#CIF1.1
##########################################################################
#               Crystallographic Information Format file 
#               Produced by PyCifRW module
# 
#  This is a CIF file.  CIF has been adopted by the International
#  Union of Crystallography as the standard for data archiving and 
#  transmission.
#
#  For information on this file format, follow the CIF links at
#  http://www.iucr.org
##########################################################################

data_LiFePO4
_symmetry_space_group_name_H-M          'P 1'
_cell_length_a                          4.787
_cell_length_b                          6.01
_cell_length_c                          40.996
_cell_angle_alpha                       90.0
_cell_angle_beta                        90.0
_cell_angle_gamma                       90.0
_chemical_name_systematic               'Generated by pymatgen'
_symmetry_Int_Tables_number             1
_chemical_formula_structural            LiFePO4
_chemical_formula_sum                   'Li12 Fe12 P12 O48'
_cell_volume                            1179.44959052
_cell_formula_units_Z                   0
loop_
  _symmetry_equiv_pos_site_id
  _symmetry_equiv_pos_as_xyz
   1  'x, y, z'
 
loop_
  _atom_type_symbol
  _atom_type_oxidation_number
   O2-  -2.0
   Fe2+  2.0
   Li+  1.0
   P5+  5.0
 
loop_
  _atom_site_type_symbol
  _atom_site_label
  _atom_site_symmetry_multiplicity
  _atom_site_fract_x
  _atom_site_fract_y
  _atom_site_fract_z
  _atom_site_attached_hydrogens
  _atom_site_B_iso_or_equiv
  _atom_site_occupancy
   O2-  O1  1  0.706000  0.750000  0.834061  0  .  1
   P5+  P2  1  0.419210  0.250000  0.847053  0  .  1
   O2-  O3  1  0.743000  0.250000  0.847544  0  .  1
   O2-  O4  1  0.284700  0.046600  0.864901  0  .  1
   O2-  O5  1  0.284700  0.453400  0.864901  0  .  1
   Fe2+  Fe6  1  0.474730  0.750000  0.878037  0  .  1
   Fe2+  Fe7  1  0.974730  0.250000  0.138199  0  .  1
   O2-  O8  1  0.784700  0.546600  0.151334  0  .  1
   O2-  O9  1  0.784700  0.953400  0.151334  0  .  1
   O2-  O10  1  0.243000  0.750000  0.168691  0  .  1
   P5+  P11  1  0.919210  0.750000  0.169182  0  .  1
   O2-  O12  1  0.206000  0.250000  0.182174  0  .  1
   Li+  Li13  1  0.500000  0.000000  0.193087  0  .  1
   Li+  Li14  1  0.500000  0.500000  0.193087  0  .  1
   O2-  O15  1  0.794000  0.750000  0.204000  0  .  1
   P5+  P16  1  0.080790  0.250000  0.216992  0  .  1
   O2-  O17  1  0.757000  0.250000  0.217483  0  .  1
   O2-  O18  1  0.215300  0.046600  0.234840  0  .  1
   O2-  O19  1  0.215300  0.453400  0.234840  0  .  1
   Fe2+  Fe20  1  0.025270  0.750000  0.247975  0  .  1
   Fe2+  Fe21  1  0.525270  0.250000  0.264211  0  .  1
   O2-  O22  1  0.715300  0.546600  0.277346  0  .  1
   O2-  O23  1  0.715300  0.953400  0.277346  0  .  1
   O2-  O24  1  0.257000  0.750000  0.294703  0  .  1
   P5+  P25  1  0.580790  0.750000  0.295195  0  .  1
   O2-  O26  1  0.294000  0.250000  0.308187  0  .  1
   Li+  Li27  1  0.000000  0.500000  0.319099  0  .  1
   Li+  Li28  1  0.000000  0.000000  0.319099  0  .  1
   O2-  O29  1  0.706000  0.750000  0.330012  0  .  1
   P5+  P30  1  0.419210  0.250000  0.343004  0  .  1
   O2-  O31  1  0.743000  0.250000  0.343495  0  .  1
   O2-  O32  1  0.284700  0.453400  0.360852  0  .  1
   O2-  O33  1  0.284700  0.046600  0.360852  0  .  1
   Fe2+  Fe34  1  0.474730  0.750000  0.373988  0  .  1
   Fe2+  Fe35  1  0.974730  0.250000  0.390223  0  .  1
   O2-  O36  1  0.784700  0.546600  0.403359  0  .  1
   O2-  O37  1  0.784700  0.953400  0.403359  0  .  1
   O2-  O38  1  0.243000  0.750000  0.420716  0  .  1
   P5+  P39  1  0.919210  0.750000  0.421207  0  .  1
   O2-  O40  1  0.206000  0.250000  0.434199  0  .  1
   Li+  Li41  1  0.500000  0.000000  0.445112  0  .  1
   Li+  Li42  1  0.500000  0.500000  0.445112  0  .  1
   O2-  O43  1  0.794000  0.750000  0.456024  0  .  1
   P5+  P44  1  0.080790  0.250000  0.469016  0  .  1
   O2-  O45  1  0.757000  0.250000  0.469508  0  .  1
   O2-  O46  1  0.215300  0.453400  0.486864  0  .  1
   O2-  O47  1  0.215300  0.046600  0.486864  0  .  1
   Fe2+  Fe48  1  0.025270  0.750000  0.500000  0  .  1
   Fe2+  Fe49  1  0.525270  0.250000  0.516235  0  .  1
   O2-  O50  1  0.715300  0.953400  0.529371  0  .  1
   O2-  O51  1  0.715300  0.546600  0.529371  0  .  1
   O2-  O52  1  0.257000  0.750000  0.546728  0  .  1
   P5+  P53  1  0.580790  0.750000  0.547219  0  .  1
   O2-  O54  1  0.294000  0.250000  0.560211  0  .  1
   Li+  Li55  1  0.000000  0.500000  0.571124  0  .  1
   Li+  Li56  1  0.000000  0.000000  0.571124  0  .  1
   O2-  O57  1  0.706000  0.750000  0.582037  0  .  1
   P5+  P58  1  0.419210  0.250000  0.595028  0  .  1
   O2-  O59  1  0.743000  0.250000  0.595520  0  .  1
   O2-  O60  1  0.284700  0.046600  0.612877  0  .  1
   O2-  O61  1  0.284700  0.453400  0.612877  0  .  1
   Fe2+  Fe62  1  0.474730  0.750000  0.626012  0  .  1
   Fe2+  Fe63  1  0.974730  0.250000  0.642248  0  .  1
   O2-  O64  1  0.784700  0.546600  0.655383  0  .  1
   O2-  O65  1  0.784700  0.953400  0.655383  0  .  1
   O2-  O66  1  0.243000  0.750000  0.672740  0  .  1
   P5+  P67  1  0.919210  0.750000  0.673232  0  .  1
   O2-  O68  1  0.206000  0.250000  0.686223  0  .  1
   Li+  Li69  1  0.500000  0.500000  0.697136  0  .  1
   Li+  Li70  1  0.500000  0.000000  0.697136  0  .  1
   O2-  O71  1  0.794000  0.750000  0.708049  0  .  1
   P5+  P72  1  0.080790  0.250000  0.721041  0  .  1
   O2-  O73  1  0.757000  0.250000  0.721532  0  .  1
   O2-  O74  1  0.215300  0.453400  0.738889  0  .  1
   O2-  O75  1  0.215300  0.046600  0.738889  0  .  1
   Fe2+  Fe76  1  0.025270  0.750000  0.752025  0  .  1
   Fe2+  Fe77  1  0.525270  0.250000  0.768260  0  .  1
   O2-  O78  1  0.715300  0.546600  0.781396  0  .  1
   O2-  O79  1  0.715300  0.953400  0.781396  0  .  1
   O2-  O80  1  0.257000  0.750000  0.798752  0  .  1
   P5+  P81  1  0.580790  0.750000  0.799244  0  .  1
   O2-  O82  1  0.294000  0.250000  0.812236  0  .  1
   Li+  Li83  1  0.000000  0.000000  0.823148  0  .  1
   Li+  Li84  1  0.000000  0.500000  0.823148  0  .  1
 
