#\#CIF1.1
##########################################################################
#               Crystallographic Information Format file 
#               Produced by PyCifRW module
# 
#  This is a CIF file.  CIF has been adopted by the International
#  Union of Crystallography as the standard for data archiving and 
#  transmission.
#
#  For information on this file format, follow the CIF links at
#  http://www.iucr.org
##########################################################################

data_LiFePO4
_symmetry_space_group_name_H-M          'P 1'
_cell_length_a                          4.787
_cell_length_b                          6.01
_cell_length_c                          41.328
_cell_angle_alpha                       90.0
_cell_angle_beta                        90.0
_cell_angle_gamma                       90.0
_chemical_name_systematic               'Generated by pymatgen'
_symmetry_Int_Tables_number             1
_chemical_formula_structural            LiFePO4
_chemical_formula_sum                   'Li12 Fe12 P12 O48'
_cell_volume                            1189.00118736
_cell_formula_units_Z                   12
loop_
  _symmetry_equiv_pos_site_id
  _symmetry_equiv_pos_as_xyz
   1  'x, y, z'
 
loop_
  _atom_site_type_symbol
  _atom_site_label
  _atom_site_symmetry_multiplicity
  _atom_site_fract_x
  _atom_site_fract_y
  _atom_site_fract_z
  _atom_site_attached_hydrogens
  _atom_site_B_iso_or_equiv
  _atom_site_occupancy
   O  O1  1  0.706000  0.750000  0.706377  0  .  1
   P  P2  1  0.419210  0.250000  0.719265  0  .  1
   O  O3  1  0.743000  0.250000  0.719753  0  .  1
   O  O4  1  0.284700  0.046600  0.736970  0  .  1
   O  O5  1  0.284700  0.453400  0.736970  0  .  1
   Fe  Fe6  1  0.474730  0.750000  0.750000  0  .  1
   Fe  Fe7  1  0.974730  0.250000  0.766105  0  .  1
   O  O8  1  0.784700  0.546600  0.779135  0  .  1
   O  O9  1  0.784700  0.953400  0.779135  0  .  1
   O  O10  1  0.243000  0.750000  0.796353  0  .  1
   P  P11  1  0.919210  0.750000  0.796840  0  .  1
   O  O12  1  0.206000  0.250000  0.809727  0  .  1
   Li  Li13  1  0.500000  0.000000  0.820553  0  .  1
   Li  Li14  1  0.500000  0.500000  0.820553  0  .  1
   O  O15  1  0.794000  0.750000  0.831377  0  .  1
   P  P16  1  0.080790  0.250000  0.844265  0  .  1
   O  O17  1  0.757000  0.250000  0.844753  0  .  1
   O  O18  1  0.215300  0.046600  0.861970  0  .  1
   O  O19  1  0.215300  0.453400  0.861970  0  .  1
   Fe  Fe20  1  0.025270  0.750000  0.875000  0  .  1
   Fe  Fe21  1  0.525270  0.250000  0.141105  0  .  1
   O  O22  1  0.715300  0.546600  0.154135  0  .  1
   O  O23  1  0.715300  0.953400  0.154135  0  .  1
   O  O24  1  0.257000  0.750000  0.171352  0  .  1
   P  P25  1  0.580790  0.750000  0.171840  0  .  1
   O  O26  1  0.294000  0.250000  0.184727  0  .  1
   Li  Li27  1  0.000000  0.500000  0.195553  0  .  1
   Li  Li28  1  0.000000  0.000000  0.195553  0  .  1
   O  O29  1  0.706000  0.750000  0.206377  0  .  1
   P  P30  1  0.419210  0.250000  0.219265  0  .  1
   O  O31  1  0.743000  0.250000  0.219753  0  .  1
   O  O32  1  0.284700  0.453400  0.236970  0  .  1
   O  O33  1  0.284700  0.046600  0.236970  0  .  1
   Fe  Fe34  1  0.474730  0.750000  0.250000  0  .  1
   Fe  Fe35  1  0.974730  0.250000  0.266105  0  .  1
   O  O36  1  0.784700  0.546600  0.279135  0  .  1
   O  O37  1  0.784700  0.953400  0.279135  0  .  1
   O  O38  1  0.243000  0.750000  0.296353  0  .  1
   P  P39  1  0.919210  0.750000  0.296840  0  .  1
   O  O40  1  0.206000  0.250000  0.309728  0  .  1
   Li  Li41  1  0.500000  0.000000  0.320553  0  .  1
   Li  Li42  1  0.500000  0.500000  0.320553  0  .  1
   O  O43  1  0.794000  0.750000  0.331377  0  .  1
   P  P44  1  0.080790  0.250000  0.344265  0  .  1
   O  O45  1  0.757000  0.250000  0.344753  0  .  1
   O  O46  1  0.215300  0.453400  0.361970  0  .  1
   O  O47  1  0.215300  0.046600  0.361970  0  .  1
   Fe  Fe48  1  0.025270  0.750000  0.375000  0  .  1
   Fe  Fe49  1  0.525270  0.250000  0.391105  0  .  1
   O  O50  1  0.715300  0.953400  0.404135  0  .  1
   O  O51  1  0.715300  0.546600  0.404135  0  .  1
   O  O52  1  0.257000  0.750000  0.421353  0  .  1
   P  P53  1  0.580790  0.750000  0.421840  0  .  1
   O  O54  1  0.294000  0.250000  0.434728  0  .  1
   Li  Li55  1  0.000000  0.500000  0.445553  0  .  1
   Li  Li56  1  0.000000  0.000000  0.445553  0  .  1
   O  O57  1  0.706000  0.750000  0.456377  0  .  1
   P  P58  1  0.419210  0.250000  0.469265  0  .  1
   O  O59  1  0.743000  0.250000  0.469753  0  .  1
   O  O60  1  0.284700  0.046600  0.486970  0  .  1
   O  O61  1  0.284700  0.453400  0.486970  0  .  1
   Fe  Fe62  1  0.474730  0.750000  0.500000  0  .  1
   Fe  Fe63  1  0.974730  0.250000  0.516105  0  .  1
   O  O64  1  0.784700  0.546600  0.529135  0  .  1
   O  O65  1  0.784700  0.953400  0.529135  0  .  1
   O  O66  1  0.243000  0.750000  0.546353  0  .  1
   P  P67  1  0.919210  0.750000  0.546840  0  .  1
   O  O68  1  0.206000  0.250000  0.559728  0  .  1
   Li  Li69  1  0.500000  0.500000  0.570553  0  .  1
   Li  Li70  1  0.500000  0.000000  0.570553  0  .  1
   O  O71  1  0.794000  0.750000  0.581377  0  .  1
   P  P72  1  0.080790  0.250000  0.594265  0  .  1
   O  O73  1  0.757000  0.250000  0.594753  0  .  1
   O  O74  1  0.215300  0.453400  0.611970  0  .  1
   O  O75  1  0.215300  0.046600  0.611970  0  .  1
   Fe  Fe76  1  0.025270  0.750000  0.625000  0  .  1
   Fe  Fe77  1  0.525270  0.250000  0.641105  0  .  1
   O  O78  1  0.715300  0.546600  0.654135  0  .  1
   O  O79  1  0.715300  0.953400  0.654135  0  .  1
   O  O80  1  0.257000  0.750000  0.671353  0  .  1
   P  P81  1  0.580790  0.750000  0.671840  0  .  1
   O  O82  1  0.294000  0.250000  0.684728  0  .  1
   Li  Li83  1  0.000000  0.000000  0.695553  0  .  1
   Li  Li84  1  0.000000  0.500000  0.695553  0  .  1
 
