#\#CIF1.1
##########################################################################
#               Crystallographic Information Format file 
#               Produced by PyCifRW module
# 
#  This is a CIF file.  CIF has been adopted by the International
#  Union of Crystallography as the standard for data archiving and 
#  transmission.
#
#  For information on this file format, follow the CIF links at
#  http://www.iucr.org
##########################################################################

data_LiFePO4
_symmetry_space_group_name_H-M          'P 1'
_cell_length_a                          6.01
_cell_length_b                          10.332
_cell_length_c                          28.722
_cell_angle_alpha                       90.0
_cell_angle_beta                        90.0
_cell_angle_gamma                       90.0
_chemical_name_systematic               'Generated by pymatgen'
_symmetry_Int_Tables_number             1
_chemical_formula_structural            LiFePO4
_chemical_formula_sum                   'Li12 Fe12 P12 O48'
_cell_volume                            1783.50178104
_cell_formula_units_Z                   12
loop_
  _symmetry_equiv_pos_site_id
  _symmetry_equiv_pos_as_xyz
   1  'x, y, z'
 
loop_
  _atom_site_type_symbol
  _atom_site_label
  _atom_site_symmetry_multiplicity
  _atom_site_fract_x
  _atom_site_fract_y
  _atom_site_fract_z
  _atom_site_attached_hydrogens
  _atom_site_B_iso_or_equiv
  _atom_site_occupancy
   Fe  Fe1  1  0.750000  0.717790  0.684343  0  .  1
   P  P2  1  0.250000  0.594850  0.693597  0  .  1
   O  O3  1  0.250000  0.456700  0.714465  0  .  1
   O  O4  1  0.046600  0.665670  0.716015  0  .  1
   O  O5  1  0.453400  0.665670  0.716015  0  .  1
   O  O6  1  0.750000  0.403200  0.720632  0  .  1
   O  O7  1  0.750000  0.903200  0.722965  0  .  1
   O  O8  1  0.453400  0.165670  0.727582  0  .  1
   O  O9  1  0.046600  0.165670  0.727582  0  .  1
   O  O10  1  0.250000  0.956700  0.729132  0  .  1
   P  P11  1  0.250000  0.094850  0.750000  0  .  1
   Fe  Fe12  1  0.750000  0.217790  0.259253  0  .  1
   Li  Li13  1  0.500000  0.500000  0.263465  0  .  1
   Li  Li14  1  0.000000  0.500000  0.263465  0  .  1
   Fe  Fe15  1  0.250000  0.782210  0.267677  0  .  1
   P  P16  1  0.750000  0.905150  0.276930  0  .  1
   O  O17  1  0.750000  0.043300  0.297798  0  .  1
   O  O18  1  0.546600  0.834330  0.299348  0  .  1
   O  O19  1  0.953400  0.834330  0.299348  0  .  1
   O  O20  1  0.250000  0.096800  0.303965  0  .  1
   O  O21  1  0.250000  0.596800  0.306298  0  .  1
   O  O22  1  0.546600  0.334330  0.310915  0  .  1
   O  O23  1  0.953400  0.334330  0.310915  0  .  1
   O  O24  1  0.750000  0.543300  0.312465  0  .  1
   P  P25  1  0.750000  0.405150  0.333333  0  .  1
   Fe  Fe26  1  0.250000  0.282210  0.342587  0  .  1
   Li  Li27  1  0.000000  0.000000  0.346798  0  .  1
   Li  Li28  1  0.500000  0.000000  0.346798  0  .  1
   Fe  Fe29  1  0.750000  0.717790  0.351010  0  .  1
   P  P30  1  0.250000  0.594850  0.360263  0  .  1
   O  O31  1  0.250000  0.456700  0.381132  0  .  1
   O  O32  1  0.453400  0.665670  0.382682  0  .  1
   O  O33  1  0.046600  0.665670  0.382682  0  .  1
   O  O34  1  0.750000  0.403200  0.387298  0  .  1
   O  O35  1  0.750000  0.903200  0.389632  0  .  1
   O  O36  1  0.046600  0.165670  0.394248  0  .  1
   O  O37  1  0.453400  0.165670  0.394248  0  .  1
   O  O38  1  0.250000  0.956700  0.395798  0  .  1
   P  P39  1  0.250000  0.094850  0.416667  0  .  1
   Fe  Fe40  1  0.750000  0.217790  0.425920  0  .  1
   Li  Li41  1  0.000000  0.500000  0.430132  0  .  1
   Li  Li42  1  0.500000  0.500000  0.430132  0  .  1
   Fe  Fe43  1  0.250000  0.782210  0.434343  0  .  1
   P  P44  1  0.750000  0.905150  0.443597  0  .  1
   O  O45  1  0.750000  0.043300  0.464465  0  .  1
   O  O46  1  0.546600  0.834330  0.466015  0  .  1
   O  O47  1  0.953400  0.834330  0.466015  0  .  1
   O  O48  1  0.250000  0.096800  0.470632  0  .  1
   O  O49  1  0.250000  0.596800  0.472965  0  .  1
   O  O50  1  0.953400  0.334330  0.477582  0  .  1
   O  O51  1  0.546600  0.334330  0.477582  0  .  1
   O  O52  1  0.750000  0.543300  0.479132  0  .  1
   P  P53  1  0.750000  0.405150  0.500000  0  .  1
   Fe  Fe54  1  0.250000  0.282210  0.509253  0  .  1
   Li  Li55  1  0.000000  0.000000  0.513465  0  .  1
   Li  Li56  1  0.500000  0.000000  0.513465  0  .  1
   Fe  Fe57  1  0.750000  0.717790  0.517677  0  .  1
   P  P58  1  0.250000  0.594850  0.526930  0  .  1
   O  O59  1  0.250000  0.456700  0.547798  0  .  1
   O  O60  1  0.046600  0.665670  0.549348  0  .  1
   O  O61  1  0.453400  0.665670  0.549348  0  .  1
   O  O62  1  0.750000  0.403200  0.553965  0  .  1
   O  O63  1  0.750000  0.903200  0.556298  0  .  1
   O  O64  1  0.046600  0.165670  0.560915  0  .  1
   O  O65  1  0.453400  0.165670  0.560915  0  .  1
   O  O66  1  0.250000  0.956700  0.562465  0  .  1
   P  P67  1  0.250000  0.094850  0.583333  0  .  1
   Fe  Fe68  1  0.750000  0.217790  0.592587  0  .  1
   Li  Li69  1  0.000000  0.500000  0.596798  0  .  1
   Li  Li70  1  0.500000  0.500000  0.596798  0  .  1
   Fe  Fe71  1  0.250000  0.782210  0.601010  0  .  1
   P  P72  1  0.750000  0.905150  0.610263  0  .  1
   O  O73  1  0.750000  0.043300  0.631132  0  .  1
   O  O74  1  0.546600  0.834330  0.632682  0  .  1
   O  O75  1  0.953400  0.834330  0.632682  0  .  1
   O  O76  1  0.250000  0.096800  0.637298  0  .  1
   O  O77  1  0.250000  0.596800  0.639632  0  .  1
   O  O78  1  0.546600  0.334330  0.644248  0  .  1
   O  O79  1  0.953400  0.334330  0.644248  0  .  1
   O  O80  1  0.750000  0.543300  0.645798  0  .  1
   P  P81  1  0.750000  0.405150  0.666667  0  .  1
   Fe  Fe82  1  0.250000  0.282210  0.675920  0  .  1
   Li  Li83  1  0.000000  0.000000  0.680132  0  .  1
   Li  Li84  1  0.500000  0.000000  0.680132  0  .  1
 
