#\#CIF1.1
##########################################################################
#               Crystallographic Information Format file 
#               Produced by PyCifRW module
# 
#  This is a CIF file.  CIF has been adopted by the International
#  Union of Crystallography as the standard for data archiving and 
#  transmission.
#
#  For information on this file format, follow the CIF links at
#  http://www.iucr.org
##########################################################################

data_LiFePO4
_symmetry_space_group_name_H-M          'P 1'
_cell_length_a                          6.01
_cell_length_b                          10.332
_cell_length_c                          28.722
_cell_angle_alpha                       90.0
_cell_angle_beta                        90.0
_cell_angle_gamma                       90.0
_chemical_name_systematic               'Generated by pymatgen'
_symmetry_Int_Tables_number             1
_chemical_formula_structural            LiFePO4
_chemical_formula_sum                   'Li12 Fe12 P12 O48'
_cell_volume                            1783.50178104
_cell_formula_units_Z                   12
loop_
  _symmetry_equiv_pos_site_id
  _symmetry_equiv_pos_as_xyz
   1  'x, y, z'
 
loop_
  _atom_site_type_symbol
  _atom_site_label
  _atom_site_symmetry_multiplicity
  _atom_site_fract_x
  _atom_site_fract_y
  _atom_site_fract_z
  _atom_site_attached_hydrogens
  _atom_site_B_iso_or_equiv
  _atom_site_occupancy
   Fe  Fe1  1  0.750000  0.717790  0.718328  0  .  1
   P  P2  1  0.250000  0.594850  0.727582  0  .  1
   O  O3  1  0.250000  0.456700  0.748450  0  .  1
   O  O4  1  0.046600  0.665670  0.750000  0  .  1
   O  O5  1  0.453400  0.665670  0.750000  0  .  1
   O  O6  1  0.750000  0.403200  0.254617  0  .  1
   O  O7  1  0.750000  0.903200  0.256950  0  .  1
   O  O8  1  0.453400  0.165670  0.261567  0  .  1
   O  O9  1  0.046600  0.165670  0.261567  0  .  1
   O  O10  1  0.250000  0.956700  0.263117  0  .  1
   P  P11  1  0.250000  0.094850  0.283985  0  .  1
   Fe  Fe12  1  0.750000  0.217790  0.293238  0  .  1
   Li  Li13  1  0.500000  0.500000  0.297450  0  .  1
   Li  Li14  1  0.000000  0.500000  0.297450  0  .  1
   Fe  Fe15  1  0.250000  0.782210  0.301662  0  .  1
   P  P16  1  0.750000  0.905150  0.310915  0  .  1
   O  O17  1  0.750000  0.043300  0.331783  0  .  1
   O  O18  1  0.546600  0.834330  0.333333  0  .  1
   O  O19  1  0.953400  0.834330  0.333333  0  .  1
   O  O20  1  0.250000  0.096800  0.337950  0  .  1
   O  O21  1  0.250000  0.596800  0.340283  0  .  1
   O  O22  1  0.546600  0.334330  0.344900  0  .  1
   O  O23  1  0.953400  0.334330  0.344900  0  .  1
   O  O24  1  0.750000  0.543300  0.346450  0  .  1
   P  P25  1  0.750000  0.405150  0.367318  0  .  1
   Fe  Fe26  1  0.250000  0.282210  0.376572  0  .  1
   Li  Li27  1  0.000000  0.000000  0.380783  0  .  1
   Li  Li28  1  0.500000  0.000000  0.380783  0  .  1
   Fe  Fe29  1  0.750000  0.717790  0.384995  0  .  1
   P  P30  1  0.250000  0.594850  0.394248  0  .  1
   O  O31  1  0.250000  0.456700  0.415117  0  .  1
   O  O32  1  0.453400  0.665670  0.416667  0  .  1
   O  O33  1  0.046600  0.665670  0.416667  0  .  1
   O  O34  1  0.750000  0.403200  0.421283  0  .  1
   O  O35  1  0.750000  0.903200  0.423617  0  .  1
   O  O36  1  0.046600  0.165670  0.428233  0  .  1
   O  O37  1  0.453400  0.165670  0.428233  0  .  1
   O  O38  1  0.250000  0.956700  0.429783  0  .  1
   P  P39  1  0.250000  0.094850  0.450652  0  .  1
   Fe  Fe40  1  0.750000  0.217790  0.459905  0  .  1
   Li  Li41  1  0.000000  0.500000  0.464117  0  .  1
   Li  Li42  1  0.500000  0.500000  0.464117  0  .  1
   Fe  Fe43  1  0.250000  0.782210  0.468328  0  .  1
   P  P44  1  0.750000  0.905150  0.477582  0  .  1
   O  O45  1  0.750000  0.043300  0.498450  0  .  1
   O  O46  1  0.546600  0.834330  0.500000  0  .  1
   O  O47  1  0.953400  0.834330  0.500000  0  .  1
   O  O48  1  0.250000  0.096800  0.504617  0  .  1
   O  O49  1  0.250000  0.596800  0.506950  0  .  1
   O  O50  1  0.953400  0.334330  0.511567  0  .  1
   O  O51  1  0.546600  0.334330  0.511567  0  .  1
   O  O52  1  0.750000  0.543300  0.513117  0  .  1
   P  P53  1  0.750000  0.405150  0.533985  0  .  1
   Fe  Fe54  1  0.250000  0.282210  0.543238  0  .  1
   Li  Li55  1  0.000000  0.000000  0.547450  0  .  1
   Li  Li56  1  0.500000  0.000000  0.547450  0  .  1
   Fe  Fe57  1  0.750000  0.717790  0.551662  0  .  1
   P  P58  1  0.250000  0.594850  0.560915  0  .  1
   O  O59  1  0.250000  0.456700  0.581783  0  .  1
   O  O60  1  0.046600  0.665670  0.583333  0  .  1
   O  O61  1  0.453400  0.665670  0.583333  0  .  1
   O  O62  1  0.750000  0.403200  0.587950  0  .  1
   O  O63  1  0.750000  0.903200  0.590283  0  .  1
   O  O64  1  0.046600  0.165670  0.594900  0  .  1
   O  O65  1  0.453400  0.165670  0.594900  0  .  1
   O  O66  1  0.250000  0.956700  0.596450  0  .  1
   P  P67  1  0.250000  0.094850  0.617318  0  .  1
   Fe  Fe68  1  0.750000  0.217790  0.626572  0  .  1
   Li  Li69  1  0.000000  0.500000  0.630783  0  .  1
   Li  Li70  1  0.500000  0.500000  0.630783  0  .  1
   Fe  Fe71  1  0.250000  0.782210  0.634995  0  .  1
   P  P72  1  0.750000  0.905150  0.644248  0  .  1
   O  O73  1  0.750000  0.043300  0.665117  0  .  1
   O  O74  1  0.546600  0.834330  0.666667  0  .  1
   O  O75  1  0.953400  0.834330  0.666667  0  .  1
   O  O76  1  0.250000  0.096800  0.671283  0  .  1
   O  O77  1  0.250000  0.596800  0.673617  0  .  1
   O  O78  1  0.546600  0.334330  0.678233  0  .  1
   O  O79  1  0.953400  0.334330  0.678233  0  .  1
   O  O80  1  0.750000  0.543300  0.679783  0  .  1
   P  P81  1  0.750000  0.405150  0.700652  0  .  1
   Fe  Fe82  1  0.250000  0.282210  0.709905  0  .  1
   Li  Li83  1  0.000000  0.000000  0.714117  0  .  1
   Li  Li84  1  0.500000  0.000000  0.714117  0  .  1
 
