#\#CIF1.1
##########################################################################
#               Crystallographic Information Format file 
#               Produced by PyCifRW module
# 
#  This is a CIF file.  CIF has been adopted by the International
#  Union of Crystallography as the standard for data archiving and 
#  transmission.
#
#  For information on this file format, follow the CIF links at
#  http://www.iucr.org
##########################################################################

data_LiFePO4
_symmetry_space_group_name_H-M          'P 1'
_cell_length_a                          6.01
_cell_length_b                          10.332
_cell_length_c                          28.722
_cell_angle_alpha                       90.0
_cell_angle_beta                        90.0
_cell_angle_gamma                       90.0
_chemical_name_systematic               'Generated by pymatgen'
_symmetry_Int_Tables_number             1
_chemical_formula_structural            LiFePO4
_chemical_formula_sum                   'Li12 Fe12 P12 O48'
_cell_volume                            1783.50178104
_cell_formula_units_Z                   0
loop_
  _symmetry_equiv_pos_site_id
  _symmetry_equiv_pos_as_xyz
   1  'x, y, z'
 
loop_
  _atom_type_symbol
  _atom_type_oxidation_number
   O2-  -2.0
   Fe2+  2.0
   Li+  1.0
   P5+  5.0
 
loop_
  _atom_site_type_symbol
  _atom_site_label
  _atom_site_symmetry_multiplicity
  _atom_site_fract_x
  _atom_site_fract_y
  _atom_site_fract_z
  _atom_site_attached_hydrogens
  _atom_site_B_iso_or_equiv
  _atom_site_occupancy
   Fe2+  Fe1  1  0.750000  0.717790  0.634995  0  .  1
   P5+  P2  1  0.250000  0.594850  0.644248  0  .  1
   O2-  O3  1  0.250000  0.456700  0.665117  0  .  1
   O2-  O4  1  0.046600  0.665670  0.666667  0  .  1
   O2-  O5  1  0.453400  0.665670  0.666667  0  .  1
   O2-  O6  1  0.750000  0.403200  0.671283  0  .  1
   O2-  O7  1  0.750000  0.903200  0.673617  0  .  1
   O2-  O8  1  0.453400  0.165670  0.678233  0  .  1
   O2-  O9  1  0.046600  0.165670  0.678233  0  .  1
   O2-  O10  1  0.250000  0.956700  0.679783  0  .  1
   P5+  P11  1  0.250000  0.094850  0.700652  0  .  1
   Fe2+  Fe12  1  0.750000  0.217790  0.709905  0  .  1
   Li+  Li13  1  0.500000  0.500000  0.714117  0  .  1
   Li+  Li14  1  0.000000  0.500000  0.714117  0  .  1
   Fe2+  Fe15  1  0.250000  0.782210  0.718328  0  .  1
   P5+  P16  1  0.750000  0.905150  0.727582  0  .  1
   O2-  O17  1  0.750000  0.043300  0.748450  0  .  1
   O2-  O18  1  0.546600  0.834330  0.750000  0  .  1
   O2-  O19  1  0.953400  0.834330  0.750000  0  .  1
   O2-  O20  1  0.250000  0.096800  0.254617  0  .  1
   O2-  O21  1  0.250000  0.596800  0.256950  0  .  1
   O2-  O22  1  0.546600  0.334330  0.261567  0  .  1
   O2-  O23  1  0.953400  0.334330  0.261567  0  .  1
   O2-  O24  1  0.750000  0.543300  0.263117  0  .  1
   P5+  P25  1  0.750000  0.405150  0.283985  0  .  1
   Fe2+  Fe26  1  0.250000  0.282210  0.293238  0  .  1
   Li+  Li27  1  0.000000  0.000000  0.297450  0  .  1
   Li+  Li28  1  0.500000  0.000000  0.297450  0  .  1
   Fe2+  Fe29  1  0.750000  0.717790  0.301662  0  .  1
   P5+  P30  1  0.250000  0.594850  0.310915  0  .  1
   O2-  O31  1  0.250000  0.456700  0.331783  0  .  1
   O2-  O32  1  0.453400  0.665670  0.333333  0  .  1
   O2-  O33  1  0.046600  0.665670  0.333333  0  .  1
   O2-  O34  1  0.750000  0.403200  0.337950  0  .  1
   O2-  O35  1  0.750000  0.903200  0.340283  0  .  1
   O2-  O36  1  0.046600  0.165670  0.344900  0  .  1
   O2-  O37  1  0.453400  0.165670  0.344900  0  .  1
   O2-  O38  1  0.250000  0.956700  0.346450  0  .  1
   P5+  P39  1  0.250000  0.094850  0.367318  0  .  1
   Fe2+  Fe40  1  0.750000  0.217790  0.376572  0  .  1
   Li+  Li41  1  0.000000  0.500000  0.380783  0  .  1
   Li+  Li42  1  0.500000  0.500000  0.380783  0  .  1
   Fe2+  Fe43  1  0.250000  0.782210  0.384995  0  .  1
   P5+  P44  1  0.750000  0.905150  0.394248  0  .  1
   O2-  O45  1  0.750000  0.043300  0.415117  0  .  1
   O2-  O46  1  0.546600  0.834330  0.416667  0  .  1
   O2-  O47  1  0.953400  0.834330  0.416667  0  .  1
   O2-  O48  1  0.250000  0.096800  0.421283  0  .  1
   O2-  O49  1  0.250000  0.596800  0.423617  0  .  1
   O2-  O50  1  0.953400  0.334330  0.428233  0  .  1
   O2-  O51  1  0.546600  0.334330  0.428233  0  .  1
   O2-  O52  1  0.750000  0.543300  0.429783  0  .  1
   P5+  P53  1  0.750000  0.405150  0.450652  0  .  1
   Fe2+  Fe54  1  0.250000  0.282210  0.459905  0  .  1
   Li+  Li55  1  0.000000  0.000000  0.464117  0  .  1
   Li+  Li56  1  0.500000  0.000000  0.464117  0  .  1
   Fe2+  Fe57  1  0.750000  0.717790  0.468328  0  .  1
   P5+  P58  1  0.250000  0.594850  0.477582  0  .  1
   O2-  O59  1  0.250000  0.456700  0.498450  0  .  1
   O2-  O60  1  0.046600  0.665670  0.500000  0  .  1
   O2-  O61  1  0.453400  0.665670  0.500000  0  .  1
   O2-  O62  1  0.750000  0.403200  0.504617  0  .  1
   O2-  O63  1  0.750000  0.903200  0.506950  0  .  1
   O2-  O64  1  0.046600  0.165670  0.511567  0  .  1
   O2-  O65  1  0.453400  0.165670  0.511567  0  .  1
   O2-  O66  1  0.250000  0.956700  0.513117  0  .  1
   P5+  P67  1  0.250000  0.094850  0.533985  0  .  1
   Fe2+  Fe68  1  0.750000  0.217790  0.543238  0  .  1
   Li+  Li69  1  0.000000  0.500000  0.547450  0  .  1
   Li+  Li70  1  0.500000  0.500000  0.547450  0  .  1
   Fe2+  Fe71  1  0.250000  0.782210  0.551662  0  .  1
   P5+  P72  1  0.750000  0.905150  0.560915  0  .  1
   O2-  O73  1  0.750000  0.043300  0.581783  0  .  1
   O2-  O74  1  0.546600  0.834330  0.583333  0  .  1
   O2-  O75  1  0.953400  0.834330  0.583333  0  .  1
   O2-  O76  1  0.250000  0.096800  0.587950  0  .  1
   O2-  O77  1  0.250000  0.596800  0.590283  0  .  1
   O2-  O78  1  0.546600  0.334330  0.594900  0  .  1
   O2-  O79  1  0.953400  0.334330  0.594900  0  .  1
   O2-  O80  1  0.750000  0.543300  0.596450  0  .  1
   P5+  P81  1  0.750000  0.405150  0.617318  0  .  1
   Fe2+  Fe82  1  0.250000  0.282210  0.626572  0  .  1
   Li+  Li83  1  0.000000  0.000000  0.630783  0  .  1
   Li+  Li84  1  0.500000  0.000000  0.630783  0  .  1
 
