#\#CIF1.1
##########################################################################
#               Crystallographic Information Format file 
#               Produced by PyCifRW module
# 
#  This is a CIF file.  CIF has been adopted by the International
#  Union of Crystallography as the standard for data archiving and 
#  transmission.
#
#  For information on this file format, follow the CIF links at
#  http://www.iucr.org
##########################################################################

data_LiFePO4
_symmetry_space_group_name_H-M          'P 1'
_cell_length_a                          6.01
_cell_length_b                          10.332
_cell_length_c                          24.361
_cell_angle_alpha                       90.0
_cell_angle_beta                        90.0
_cell_angle_gamma                       90.0
_chemical_name_systematic               'Generated by pymatgen'
_symmetry_Int_Tables_number             1
_chemical_formula_structural            LiFePO4
_chemical_formula_sum                   'Li12 Fe12 P12 O48'
_cell_volume                            1512.70409052
_cell_formula_units_Z                   0
loop_
  _symmetry_equiv_pos_site_id
  _symmetry_equiv_pos_as_xyz
   1  'x, y, z'
 
loop_
  _atom_type_symbol
  _atom_type_oxidation_number
   O2-  -2.0
   Fe2+  2.0
   Li+  1.0
   P5+  5.0
 
loop_
  _atom_site_type_symbol
  _atom_site_label
  _atom_site_symmetry_multiplicity
  _atom_site_fract_x
  _atom_site_fract_y
  _atom_site_fract_z
  _atom_site_attached_hydrogens
  _atom_site_B_iso_or_equiv
  _atom_site_occupancy
   Fe2+  Fe1  1  0.750000  0.717790  0.608183  0  .  1
   P5+  P2  1  0.250000  0.594850  0.619092  0  .  1
   O2-  O3  1  0.250000  0.456700  0.643696  0  .  1
   O2-  O4  1  0.046600  0.665670  0.645524  0  .  1
   O2-  O5  1  0.453400  0.665670  0.645524  0  .  1
   O2-  O6  1  0.750000  0.403200  0.650967  0  .  1
   O2-  O7  1  0.750000  0.903200  0.653718  0  .  1
   O2-  O8  1  0.453400  0.165670  0.659161  0  .  1
   O2-  O9  1  0.046600  0.165670  0.659161  0  .  1
   O2-  O10  1  0.250000  0.956700  0.660989  0  .  1
   P5+  P11  1  0.250000  0.094850  0.685593  0  .  1
   Fe2+  Fe12  1  0.750000  0.217790  0.696503  0  .  1
   Li+  Li13  1  0.500000  0.500000  0.701468  0  .  1
   Li+  Li14  1  0.000000  0.500000  0.701468  0  .  1
   Fe2+  Fe15  1  0.250000  0.782210  0.706434  0  .  1
   P5+  P16  1  0.750000  0.905150  0.717344  0  .  1
   O2-  O17  1  0.750000  0.043300  0.741948  0  .  1
   O2-  O18  1  0.546600  0.834330  0.743775  0  .  1
   O2-  O19  1  0.953400  0.834330  0.743775  0  .  1
   O2-  O20  1  0.250000  0.096800  0.749218  0  .  1
   O2-  O21  1  0.250000  0.596800  0.751969  0  .  1
   O2-  O22  1  0.546600  0.334330  0.757413  0  .  1
   O2-  O23  1  0.953400  0.334330  0.757413  0  .  1
   O2-  O24  1  0.750000  0.543300  0.759240  0  .  1
   P5+  P25  1  0.750000  0.405150  0.783844  0  .  1
   Fe2+  Fe26  1  0.250000  0.282210  0.794754  0  .  1
   Li+  Li27  1  0.000000  0.000000  0.210212  0  .  1
   Li+  Li28  1  0.500000  0.000000  0.210212  0  .  1
   Fe2+  Fe29  1  0.750000  0.717790  0.215177  0  .  1
   P5+  P30  1  0.250000  0.594850  0.226087  0  .  1
   O2-  O31  1  0.250000  0.456700  0.250691  0  .  1
   O2-  O32  1  0.453400  0.665670  0.252519  0  .  1
   O2-  O33  1  0.046600  0.665670  0.252519  0  .  1
   O2-  O34  1  0.750000  0.403200  0.257962  0  .  1
   O2-  O35  1  0.750000  0.903200  0.260713  0  .  1
   O2-  O36  1  0.046600  0.165670  0.266156  0  .  1
   O2-  O37  1  0.453400  0.165670  0.266156  0  .  1
   O2-  O38  1  0.250000  0.956700  0.267983  0  .  1
   P5+  P39  1  0.250000  0.094850  0.292588  0  .  1
   Fe2+  Fe40  1  0.750000  0.217790  0.303497  0  .  1
   Li+  Li41  1  0.000000  0.500000  0.308463  0  .  1
   Li+  Li42  1  0.500000  0.500000  0.308463  0  .  1
   Fe2+  Fe43  1  0.250000  0.782210  0.313429  0  .  1
   P5+  P44  1  0.750000  0.905150  0.324338  0  .  1
   O2-  O45  1  0.750000  0.043300  0.348943  0  .  1
   O2-  O46  1  0.546600  0.834330  0.350770  0  .  1
   O2-  O47  1  0.953400  0.834330  0.350770  0  .  1
   O2-  O48  1  0.250000  0.096800  0.356213  0  .  1
   O2-  O49  1  0.250000  0.596800  0.358964  0  .  1
   O2-  O50  1  0.953400  0.334330  0.364407  0  .  1
   O2-  O51  1  0.546600  0.334330  0.364407  0  .  1
   O2-  O52  1  0.750000  0.543300  0.366235  0  .  1
   P5+  P53  1  0.750000  0.405150  0.390839  0  .  1
   Fe2+  Fe54  1  0.250000  0.282210  0.401749  0  .  1
   Li+  Li55  1  0.000000  0.000000  0.406714  0  .  1
   Li+  Li56  1  0.500000  0.000000  0.406714  0  .  1
   Fe2+  Fe57  1  0.750000  0.717790  0.411680  0  .  1
   P5+  P58  1  0.250000  0.594850  0.422590  0  .  1
   O2-  O59  1  0.250000  0.456700  0.447194  0  .  1
   O2-  O60  1  0.046600  0.665670  0.449021  0  .  1
   O2-  O61  1  0.453400  0.665670  0.449021  0  .  1
   O2-  O62  1  0.750000  0.403200  0.454464  0  .  1
   O2-  O63  1  0.750000  0.903200  0.457215  0  .  1
   O2-  O64  1  0.046600  0.165670  0.462659  0  .  1
   O2-  O65  1  0.453400  0.165670  0.462659  0  .  1
   O2-  O66  1  0.250000  0.956700  0.464486  0  .  1
   P5+  P67  1  0.250000  0.094850  0.489090  0  .  1
   Fe2+  Fe68  1  0.750000  0.217790  0.500000  0  .  1
   Li+  Li69  1  0.000000  0.500000  0.504966  0  .  1
   Li+  Li70  1  0.500000  0.500000  0.504966  0  .  1
   Fe2+  Fe71  1  0.250000  0.782210  0.509931  0  .  1
   P5+  P72  1  0.750000  0.905150  0.520841  0  .  1
   O2-  O73  1  0.750000  0.043300  0.545445  0  .  1
   O2-  O74  1  0.546600  0.834330  0.547273  0  .  1
   O2-  O75  1  0.953400  0.834330  0.547273  0  .  1
   O2-  O76  1  0.250000  0.096800  0.552716  0  .  1
   O2-  O77  1  0.250000  0.596800  0.555467  0  .  1
   O2-  O78  1  0.546600  0.334330  0.560910  0  .  1
   O2-  O79  1  0.953400  0.334330  0.560910  0  .  1
   O2-  O80  1  0.750000  0.543300  0.562737  0  .  1
   P5+  P81  1  0.750000  0.405150  0.587341  0  .  1
   Fe2+  Fe82  1  0.250000  0.282210  0.598251  0  .  1
   Li+  Li83  1  0.000000  0.000000  0.603217  0  .  1
   Li+  Li84  1  0.500000  0.000000  0.603217  0  .  1
 
