#\#CIF1.1
##########################################################################
#               Crystallographic Information Format file 
#               Produced by PyCifRW module
# 
#  This is a CIF file.  CIF has been adopted by the International
#  Union of Crystallography as the standard for data archiving and 
#  transmission.
#
#  For information on this file format, follow the CIF links at
#  http://www.iucr.org
##########################################################################

data_LiFePO4
_symmetry_space_group_name_H-M          'P 1'
_cell_length_a                          6.01
_cell_length_b                          10.332
_cell_length_c                          28.722
_cell_angle_alpha                       90.0
_cell_angle_beta                        90.0
_cell_angle_gamma                       90.0
_chemical_name_systematic               'Generated by pymatgen'
_symmetry_Int_Tables_number             1
_chemical_formula_structural            LiFePO4
_chemical_formula_sum                   'Li12 Fe12 P12 O48'
_cell_volume                            1783.50178104
_cell_formula_units_Z                   12
loop_
  _symmetry_equiv_pos_site_id
  _symmetry_equiv_pos_as_xyz
   1  'x, y, z'
 
loop_
  _atom_site_type_symbol
  _atom_site_label
  _atom_site_symmetry_multiplicity
  _atom_site_fract_x
  _atom_site_fract_y
  _atom_site_fract_z
  _atom_site_attached_hydrogens
  _atom_site_B_iso_or_equiv
  _atom_site_occupancy
   Fe  Fe1  1  0.750000  0.717790  0.628045  0  .  1
   P  P2  1  0.250000  0.594850  0.637298  0  .  1
   O  O3  1  0.250000  0.456700  0.658167  0  .  1
   O  O4  1  0.046600  0.665670  0.659717  0  .  1
   O  O5  1  0.453400  0.665670  0.659717  0  .  1
   O  O6  1  0.750000  0.403200  0.664333  0  .  1
   O  O7  1  0.750000  0.903200  0.666667  0  .  1
   O  O8  1  0.453400  0.165670  0.671283  0  .  1
   O  O9  1  0.046600  0.165670  0.671283  0  .  1
   O  O10  1  0.250000  0.956700  0.672833  0  .  1
   P  P11  1  0.250000  0.094850  0.693702  0  .  1
   Fe  Fe12  1  0.750000  0.217790  0.702955  0  .  1
   Li  Li13  1  0.500000  0.500000  0.707167  0  .  1
   Li  Li14  1  0.000000  0.500000  0.707167  0  .  1
   Fe  Fe15  1  0.250000  0.782210  0.711378  0  .  1
   P  P16  1  0.750000  0.905150  0.720632  0  .  1
   O  O17  1  0.750000  0.043300  0.741500  0  .  1
   O  O18  1  0.546600  0.834330  0.743050  0  .  1
   O  O19  1  0.953400  0.834330  0.743050  0  .  1
   O  O20  1  0.250000  0.096800  0.747667  0  .  1
   O  O21  1  0.250000  0.596800  0.750000  0  .  1
   O  O22  1  0.546600  0.334330  0.254617  0  .  1
   O  O23  1  0.953400  0.334330  0.254617  0  .  1
   O  O24  1  0.750000  0.543300  0.256167  0  .  1
   P  P25  1  0.750000  0.405150  0.277035  0  .  1
   Fe  Fe26  1  0.250000  0.282210  0.286288  0  .  1
   Li  Li27  1  0.000000  0.000000  0.290500  0  .  1
   Li  Li28  1  0.500000  0.000000  0.290500  0  .  1
   Fe  Fe29  1  0.750000  0.717790  0.294712  0  .  1
   P  P30  1  0.250000  0.594850  0.303965  0  .  1
   O  O31  1  0.250000  0.456700  0.324833  0  .  1
   O  O32  1  0.453400  0.665670  0.326383  0  .  1
   O  O33  1  0.046600  0.665670  0.326383  0  .  1
   O  O34  1  0.750000  0.403200  0.331000  0  .  1
   O  O35  1  0.750000  0.903200  0.333333  0  .  1
   O  O36  1  0.046600  0.165670  0.337950  0  .  1
   O  O37  1  0.453400  0.165670  0.337950  0  .  1
   O  O38  1  0.250000  0.956700  0.339500  0  .  1
   P  P39  1  0.250000  0.094850  0.360368  0  .  1
   Fe  Fe40  1  0.750000  0.217790  0.369622  0  .  1
   Li  Li41  1  0.000000  0.500000  0.373833  0  .  1
   Li  Li42  1  0.500000  0.500000  0.373833  0  .  1
   Fe  Fe43  1  0.250000  0.782210  0.378045  0  .  1
   P  P44  1  0.750000  0.905150  0.387298  0  .  1
   O  O45  1  0.750000  0.043300  0.408167  0  .  1
   O  O46  1  0.546600  0.834330  0.409717  0  .  1
   O  O47  1  0.953400  0.834330  0.409717  0  .  1
   O  O48  1  0.250000  0.096800  0.414333  0  .  1
   O  O49  1  0.250000  0.596800  0.416667  0  .  1
   O  O50  1  0.953400  0.334330  0.421283  0  .  1
   O  O51  1  0.546600  0.334330  0.421283  0  .  1
   O  O52  1  0.750000  0.543300  0.422833  0  .  1
   P  P53  1  0.750000  0.405150  0.443702  0  .  1
   Fe  Fe54  1  0.250000  0.282210  0.452955  0  .  1
   Li  Li55  1  0.000000  0.000000  0.457167  0  .  1
   Li  Li56  1  0.500000  0.000000  0.457167  0  .  1
   Fe  Fe57  1  0.750000  0.717790  0.461378  0  .  1
   P  P58  1  0.250000  0.594850  0.470632  0  .  1
   O  O59  1  0.250000  0.456700  0.491500  0  .  1
   O  O60  1  0.046600  0.665670  0.493050  0  .  1
   O  O61  1  0.453400  0.665670  0.493050  0  .  1
   O  O62  1  0.750000  0.403200  0.497667  0  .  1
   O  O63  1  0.750000  0.903200  0.500000  0  .  1
   O  O64  1  0.046600  0.165670  0.504617  0  .  1
   O  O65  1  0.453400  0.165670  0.504617  0  .  1
   O  O66  1  0.250000  0.956700  0.506167  0  .  1
   P  P67  1  0.250000  0.094850  0.527035  0  .  1
   Fe  Fe68  1  0.750000  0.217790  0.536288  0  .  1
   Li  Li69  1  0.000000  0.500000  0.540500  0  .  1
   Li  Li70  1  0.500000  0.500000  0.540500  0  .  1
   Fe  Fe71  1  0.250000  0.782210  0.544712  0  .  1
   P  P72  1  0.750000  0.905150  0.553965  0  .  1
   O  O73  1  0.750000  0.043300  0.574833  0  .  1
   O  O74  1  0.546600  0.834330  0.576383  0  .  1
   O  O75  1  0.953400  0.834330  0.576383  0  .  1
   O  O76  1  0.250000  0.096800  0.581000  0  .  1
   O  O77  1  0.250000  0.596800  0.583333  0  .  1
   O  O78  1  0.546600  0.334330  0.587950  0  .  1
   O  O79  1  0.953400  0.334330  0.587950  0  .  1
   O  O80  1  0.750000  0.543300  0.589500  0  .  1
   P  P81  1  0.750000  0.405150  0.610368  0  .  1
   Fe  Fe82  1  0.250000  0.282210  0.619622  0  .  1
   Li  Li83  1  0.000000  0.000000  0.623833  0  .  1
   Li  Li84  1  0.500000  0.000000  0.623833  0  .  1
 
