#\#CIF1.1
##########################################################################
#               Crystallographic Information Format file 
#               Produced by PyCifRW module
# 
#  This is a CIF file.  CIF has been adopted by the International
#  Union of Crystallography as the standard for data archiving and 
#  transmission.
#
#  For information on this file format, follow the CIF links at
#  http://www.iucr.org
##########################################################################

data_LiFePO4
_symmetry_space_group_name_H-M          'P 1'
_cell_length_a                          4.787
_cell_length_b                          6.01
_cell_length_c                          40.996
_cell_angle_alpha                       90.0
_cell_angle_beta                        90.0
_cell_angle_gamma                       90.0
_chemical_name_systematic               'Generated by pymatgen'
_symmetry_Int_Tables_number             1
_chemical_formula_structural            LiFePO4
_chemical_formula_sum                   'Li12 Fe12 P12 O48'
_cell_volume                            1179.44959052
_cell_formula_units_Z                   0
loop_
  _symmetry_equiv_pos_site_id
  _symmetry_equiv_pos_as_xyz
   1  'x, y, z'
 
loop_
  _atom_type_symbol
  _atom_type_oxidation_number
   O2-  -2.0
   Fe2+  2.0
   Li+  1.0
   P5+  5.0
 
loop_
  _atom_site_type_symbol
  _atom_site_label
  _atom_site_symmetry_multiplicity
  _atom_site_fract_x
  _atom_site_fract_y
  _atom_site_fract_z
  _atom_site_attached_hydrogens
  _atom_site_B_iso_or_equiv
  _atom_site_occupancy
   O2-  O1  1  0.706000  0.750000  0.691813  0  .  1
   P5+  P2  1  0.419210  0.250000  0.704805  0  .  1
   O2-  O3  1  0.743000  0.250000  0.705297  0  .  1
   O2-  O4  1  0.284700  0.046600  0.722654  0  .  1
   O2-  O5  1  0.284700  0.453400  0.722654  0  .  1
   Fe2+  Fe6  1  0.474730  0.750000  0.735789  0  .  1
   Fe2+  Fe7  1  0.974730  0.250000  0.752025  0  .  1
   O2-  O8  1  0.784700  0.546600  0.765160  0  .  1
   O2-  O9  1  0.784700  0.953400  0.765160  0  .  1
   O2-  O10  1  0.243000  0.750000  0.782517  0  .  1
   P5+  P11  1  0.919210  0.750000  0.783008  0  .  1
   O2-  O12  1  0.206000  0.250000  0.796000  0  .  1
   Li+  Li13  1  0.500000  0.000000  0.806913  0  .  1
   Li+  Li14  1  0.500000  0.500000  0.806913  0  .  1
   O2-  O15  1  0.794000  0.750000  0.817826  0  .  1
   P5+  P16  1  0.080790  0.250000  0.830818  0  .  1
   O2-  O17  1  0.757000  0.250000  0.831309  0  .  1
   O2-  O18  1  0.215300  0.046600  0.848666  0  .  1
   O2-  O19  1  0.215300  0.453400  0.848666  0  .  1
   Fe2+  Fe20  1  0.025270  0.750000  0.861801  0  .  1
   Fe2+  Fe21  1  0.525270  0.250000  0.878037  0  .  1
   O2-  O22  1  0.715300  0.546600  0.135099  0  .  1
   O2-  O23  1  0.715300  0.953400  0.135099  0  .  1
   O2-  O24  1  0.257000  0.750000  0.152456  0  .  1
   P5+  P25  1  0.580790  0.750000  0.152947  0  .  1
   O2-  O26  1  0.294000  0.250000  0.165939  0  .  1
   Li+  Li27  1  0.000000  0.500000  0.176852  0  .  1
   Li+  Li28  1  0.000000  0.000000  0.176852  0  .  1
   O2-  O29  1  0.706000  0.750000  0.187764  0  .  1
   P5+  P30  1  0.419210  0.250000  0.200756  0  .  1
   O2-  O31  1  0.743000  0.250000  0.201248  0  .  1
   O2-  O32  1  0.284700  0.453400  0.218604  0  .  1
   O2-  O33  1  0.284700  0.046600  0.218604  0  .  1
   Fe2+  Fe34  1  0.474730  0.750000  0.231740  0  .  1
   Fe2+  Fe35  1  0.974730  0.250000  0.247975  0  .  1
   O2-  O36  1  0.784700  0.546600  0.261111  0  .  1
   O2-  O37  1  0.784700  0.953400  0.261111  0  .  1
   O2-  O38  1  0.243000  0.750000  0.278468  0  .  1
   P5+  P39  1  0.919210  0.750000  0.278959  0  .  1
   O2-  O40  1  0.206000  0.250000  0.291951  0  .  1
   Li+  Li41  1  0.500000  0.000000  0.302864  0  .  1
   Li+  Li42  1  0.500000  0.500000  0.302864  0  .  1
   O2-  O43  1  0.794000  0.750000  0.313777  0  .  1
   P5+  P44  1  0.080790  0.250000  0.326768  0  .  1
   O2-  O45  1  0.757000  0.250000  0.327260  0  .  1
   O2-  O46  1  0.215300  0.453400  0.344617  0  .  1
   O2-  O47  1  0.215300  0.046600  0.344617  0  .  1
   Fe2+  Fe48  1  0.025270  0.750000  0.357752  0  .  1
   Fe2+  Fe49  1  0.525270  0.250000  0.373988  0  .  1
   O2-  O50  1  0.715300  0.953400  0.387123  0  .  1
   O2-  O51  1  0.715300  0.546600  0.387123  0  .  1
   O2-  O52  1  0.257000  0.750000  0.404480  0  .  1
   P5+  P53  1  0.580790  0.750000  0.404972  0  .  1
   O2-  O54  1  0.294000  0.250000  0.417963  0  .  1
   Li+  Li55  1  0.000000  0.500000  0.428876  0  .  1
   Li+  Li56  1  0.000000  0.000000  0.428876  0  .  1
   O2-  O57  1  0.706000  0.750000  0.439789  0  .  1
   P5+  P58  1  0.419210  0.250000  0.452781  0  .  1
   O2-  O59  1  0.743000  0.250000  0.453272  0  .  1
   O2-  O60  1  0.284700  0.046600  0.470629  0  .  1
   O2-  O61  1  0.284700  0.453400  0.470629  0  .  1
   Fe2+  Fe62  1  0.474730  0.750000  0.483765  0  .  1
   Fe2+  Fe63  1  0.974730  0.250000  0.500000  0  .  1
   O2-  O64  1  0.784700  0.546600  0.513136  0  .  1
   O2-  O65  1  0.784700  0.953400  0.513136  0  .  1
   O2-  O66  1  0.243000  0.750000  0.530492  0  .  1
   P5+  P67  1  0.919210  0.750000  0.530984  0  .  1
   O2-  O68  1  0.206000  0.250000  0.543976  0  .  1
   Li+  Li69  1  0.500000  0.500000  0.554888  0  .  1
   Li+  Li70  1  0.500000  0.000000  0.554888  0  .  1
   O2-  O71  1  0.794000  0.750000  0.565801  0  .  1
   P5+  P72  1  0.080790  0.250000  0.578793  0  .  1
   O2-  O73  1  0.757000  0.250000  0.579284  0  .  1
   O2-  O74  1  0.215300  0.453400  0.596641  0  .  1
   O2-  O75  1  0.215300  0.046600  0.596641  0  .  1
   Fe2+  Fe76  1  0.025270  0.750000  0.609777  0  .  1
   Fe2+  Fe77  1  0.525270  0.250000  0.626012  0  .  1
   O2-  O78  1  0.715300  0.546600  0.639148  0  .  1
   O2-  O79  1  0.715300  0.953400  0.639148  0  .  1
   O2-  O80  1  0.257000  0.750000  0.656505  0  .  1
   P5+  P81  1  0.580790  0.750000  0.656996  0  .  1
   O2-  O82  1  0.294000  0.250000  0.669988  0  .  1
   Li+  Li83  1  0.000000  0.000000  0.680901  0  .  1
   Li+  Li84  1  0.000000  0.500000  0.680901  0  .  1
 
